
              Welcome to ANSYS Fluent 2021 R1

              Copyright 1987-2021 ANSYS, Inc. All Rights Reserved.
              Unauthorized use, distribution or duplication is prohibited.
              This product is subject to U.S. laws governing export and re-export.
              For full Legal Notice, see documentation.

Build Time: Nov 20 2020 15:49:18 EST  Build Id: 10179  
 

*********************************************
Info: Your license enables 4-way parallel execution.
For faster simulations, please start the application with the appropriate parallel options.
*********************************************


######################################################################
            WARNING: License for fluent will expire in 7 days.
            Please contact your distributor for renewal.
######################################################################

     --------------------------------------------------------------
     This is an academic version of ANSYS FLUENT. Usage of this product
     license is limited to the terms and conditions specified in your ANSYS
     license form, additional terms section.
     --------------------------------------------------------------
Host spawning Node 0 on machine "DESKTOP-2B3UK9C" (win64).

--------------------------------------------------------------------------------
ID    Hostname         Core  O.S.         PID    Vendor                         
--------------------------------------------------------------------------------
n1    DESKTOP-2B3UK9C  2/8  Windows-x64  20804  Intel(R) Core(TM) i7-4770      
n0*   DESKTOP-2B3UK9C  1/8  Windows-x64  25144  Intel(R) Core(TM) i7-4770      
host  DESKTOP-2B3UK9C       Windows-x64  3632   Intel(R) Core(TM) i7-4770      

MPI Option Selected: intel
Selected system interconnect: default
--------------------------------------------------------------------------------

Cleanup script file is E:\\software\\Softwares_Yash\\SPHinXsys_github_learning\\SPHinXsys-learning\\tests\\user_examples\\Yash_3d_FVM_double_mach_reflection_Unstruct\\data\\cleanup-fluent-DESKTOP-2B3UK9C-3632.bat

 +------------------------------------------------------------------+
 |                    ANSYS Product Improvement                     |
 |                                                                  |
 |   ANSYS Product Improvement Program helps improve ANSYS          |
 |   products. Participating in this program is like filling out a  |
 |   survey. Without interrupting your work, the software reports   |
 |   anonymous usage information such as errors, machine and        |
 |   solver statistics, features used, etc. to ANSYS. We never      |
 |   use the data to identify or contact you.                       |
 |   The data does NOT contain:                                     |
 |   - Any personally identifiable information including names,     |
 |     IP addresses, file names, part names, etc.                   |
 |   - Any information about your geometry or design specific       |
 |     inputs.                                                      |
 |   You can stop participation at any time. To change your         |
 |   selection go to Help >> ANSYS Product Improvement Program      |
 |   in the GUI.                                                    |
 |   For more information about the ANSYS Privacy Policy, please    |
 |   check: http://www.ansys.com/privacy                            |
 |                                                                  |
 +------------------------------------------------------------------+

Reading journal file E:\software\Softwares_Yash\SPHinXsys_github_learning\SPHinXsys-learning\tests\user_examples\Yash_3d_FVM_double_mach_reflection_Unstruct\data\_read_fluent_case_.jou...

> ;Journal file automatically created by Fluent!
/file read-case E:/software/Softwares_Yash/SPHinXsys_github_learning/SPHinXsys-learning/tests/user_examples/Yash_3d_FVM_double_mach_reflection_Unstruct/data/double_mach_reflection_3D_UnStruc.msh

Reading "E:/software/Softwares_Yash/SPHinXsys_github_learning/SPHinXsys-learning/tests/user_examples/Yash_3d_FVM_double_mach_reflection_Unstruct/data/double_mach_reflection_3D_UnStruc.msh"...

Buffering for file scan...

    1501 nodes.
    5438 tetrahedral cells, zone 26.
    9805 triangular interior faces, zone 27.
      32 triangular velocity-inlet faces, zone 28.
      30 triangular outflow faces, zone 24.
     119 triangular pressure-inlet faces, zone  4.
     117 triangular wall faces, zone 29.
    1844 triangular symmetry faces, zone  7.

Building...
     mesh
	auto partitioning mesh by Metis (fast),
	distributing mesh
		parts..,
		faces..,
		nodes..,
		cells..,
        bandwidth reduction using Reverse Cuthill-McKee: 2720/58 = 46.8966
     materials,
     interface,
     domains,
     zones,
	symm
	wall
	top_boundary_inlet
	outlet
	velocity_inlet
	int_created_material_7
	created_material_7
     parallel,
Done.

Preparing mesh for display...
Warning: Both outflow and pressure boundaries are present in the
         domain. This is an incompatibility and solution cannot
         proceed until this is fixed.

Warning: Both outflow and pressure boundaries are present in the
         domain. This is an incompatibility and solution cannot
         proceed until this is fixed.

Done.

> 
adjoint/                mesh/                   report/
define/                 parallel/               server/
display/                plot/                   solve/
exit                    preferences/            surface/
file/                   print-license-usage     views/

> 
adjoint/                mesh/                   report/
define/                 parallel/               server/
display/                plot/                   solve/
exit                    preferences/            surface/
file/                   print-license-usage     views/

> 
> (cx-gui-do cx-set-list-tree-selections "NavigationPane*List_Tree1" (list "Setup|Boundary Conditions|Inlet|top_boundary_inlet (pressure-inlet, id=4)"))
(cx-gui-do cx-set-list-tree-selections "NavigationPane*List_Tree1" (list "Setup|Boundary Conditions|Inlet|velocity_inlet (velocity-inlet, id=28)"))
(cx-gui-do cx-set-list-tree-selections "NavigationPane*List_Tree1" (list "Setup|Boundary Conditions|Inlet|top_boundary_inlet (pressure-inlet, id=4)"))
(cx-gui-do cx-set-list-tree-selections "NavigationPane*List_Tree1" (list "Setup|Boundary Conditions|Inlet|top_boundary_inlet (pressure-inlet, id=4)"))
(cx-gui-do cx-activate-item "NavigationPane*List_Tree1")
(cx-gui-do cx-set-list-tree-selections "NavigationPane*List_Tree1" (list "Setup|Boundary Conditions|Inlet|top_boundary_inlet (pressure-inlet, id=4)"))
(cx-gui-do cx-activate-tab-index "Pressure Inlet*Frame2*Frame2" 0)
(cx-gui-do cx-activate-tab-index "Pressure Inlet*Frame2*Frame2" 1)
(cx-gui-do cx-activate-tab-index "Pressure Inlet*Frame2*Frame2" 0)
(cx-gui-do cx-activate-tab-index "Pressure Inlet*Frame2*Frame2" 2)
(cx-gui-do cx-activate-tab-index "Pressure Inlet*Frame2*Frame2" 0)
(cx-gui-do cx-activate-tab-index "Pressure Inlet*Frame2*Frame2" 3)
(cx-gui-do cx-activate-tab-index "Pressure Inlet*Frame2*Frame2" 0)
(cx-gui-do cx-activate-tab-index "Pressure Inlet*Frame2*Frame2" 4)
(cx-gui-do cx-activate-tab-index "Pressure Inlet*Frame2*Frame2" 0)
(cx-gui-do cx-activate-tab-index "Pressure Inlet*Frame2*Frame2" 5)
(cx-gui-do cx-activate-tab-index "Pressure Inlet*Frame2*Frame2" 0)
(cx-gui-do cx-activate-tab-index "Pressure Inlet*Frame2*Frame2" 6)
(cx-gui-do cx-activate-tab-index "Pressure Inlet*Frame2*Frame2" 0)
(cx-gui-do cx-activate-tab-index "Pressure Inlet*Frame2*Frame2" 7)
(cx-gui-do cx-activate-tab-index "Pressure Inlet*Frame2*Frame2" 0)
(cx-gui-do cx-activate-item "Pressure Inlet*PanelButtons*PushButton2(Cancel)")
(cx-gui-do cx-set-list-tree-selections "NavigationPane*List_Tree1" (list "Setup|Boundary Conditions|Internal|int_created_material_7 (interior, id=27)"))
(cx-gui-do cx-set-list-tree-selections "NavigationPane*List_Tree1" (list "Setup|Boundary Conditions|Outlet|outlet (outflow, id=24)"))
(cx-gui-do cx-set-list-tree-selections "NavigationPane*List_Tree1" (list "Setup|Boundary Conditions|Symmetry|symm (symmetry, id=7)"))
(cx-gui-do cx-set-list-tree-selections "NavigationPane*List_Tree1" (list "Setup|Boundary Conditions|Wall|wall (wall, id=29)"))
(cx-gui-do cx-activate-item "General*Table1*ButtonBox1(Mesh)*PushButton2(Display)")
(cx-gui-do cx-set-toggle-button2 "Mesh Display*Table1*Frame1*Frame1*ToggleBox1(Options)*CheckButton3(Faces)" #f)
(cx-gui-do cx-activate-item "Mesh Display*Table1*Frame1*Frame1*ToggleBox1(Options)*CheckButton3(Faces)")
(cx-gui-do cx-activate-item "Mesh Display*PanelButtons*PushButton1(OK)")
(cx-gui-do cx-set-toggle-button2 "Mesh Display*Table1*Frame1*Frame1*ToggleBox1(Options)*CheckButton1(Nodes)" #t)
(cx-gui-do cx-activate-item "Mesh Display*Table1*Frame1*Frame1*ToggleBox1(Options)*CheckButton1(Nodes)")
(cx-gui-do cx-activate-item "Mesh Display*PanelButtons*PushButton1(OK)")
(cx-gui-do cx-set-toggle-button2 "Mesh Display*Table1*Frame1*Frame1*ToggleBox1(Options)*CheckButton1(Nodes)" #f)
(cx-gui-do cx-activate-item "Mesh Display*Table1*Frame1*Frame1*ToggleBox1(Options)*CheckButton1(Nodes)")
(cx-gui-do cx-set-toggle-button2 "Mesh Display*Table1*Frame1*Frame1*ToggleBox1(Options)*CheckButton2(Edges)" #t)
(cx-gui-do cx-activate-item "Mesh Display*Table1*Frame1*Frame1*ToggleBox1(Options)*CheckButton2(Edges)")
(cx-gui-do cx-activate-item "Mesh Display*PanelButtons*PushButton1(OK)")
(cx-use-window-id 51)
(cx-use-window-id 51)
(cx-use-window-id 51)
(cxg-clear-all-selections (cx-active-window))
(cxg-add-surfaces-to-selection '(symm) (cx-active-window))
(cx-use-window-id 51)
(cx-gui-do cx-activate-item "Quick Edit*Table1*PushButton4(icon_close)")
(cx-use-window-id 51)
(cx-set-camera-relative '(6.6816 4.18626 -6.64666) '(0 0 0) '(-0.493638 -0.151074 -0.188814) 0 0)
(cx-use-window-id 51)
(cx-set-camera-relative '(-2.47686 -4.81 -4.00871) '(0 0 0) '(0.741163 -0.0455351 -0.35276) 0 0)
(cx-use-window-id 51)
(cxg-clear-all-selections (cx-active-window))
(cxg-add-surfaces-to-selection '(symm wall) (cx-active-window))
(cx-use-window-id 51)
(cx-use-window-id 51)
(cx-use-window-id 51)
(cx-set-camera-relative '(-9.64325 6.84974 4.54575) '(0 0 0) '(0.0781924 -0.0114698 0.0250679) 0 0)
(cx-use-window-id 51)
(cx-use-window-id 51)
(cx-set-camera-relative '(4.47968 0.370124 8.5033) '(0 0 0) '(-0.0479542 0.145508 0.306539) 0 0)
(cx-use-window-id 51)
(cx-use-window-id 51)
(cx-use-window-id 51)
(cx-use-window-id 51)
(cx-use-window-id 51)
(cx-use-window-id 51)
(cx-use-window-id 51)
(cx-use-window-id 51)
(cx-use-window-id 51)
(cx-use-window-id 51)
(cx-use-window-id 51)
(cx-use-window-id 51)
(cx-use-window-id 51)
(cx-use-window-id 51)
(cx-use-window-id 51)
(cx-use-window-id 51)
(cx-use-window-id 51)
(cx-use-window-id 51)
(cx-use-window-id 51)
(cx-use-window-id 51)
(cx-use-window-id 51)
(cx-use-window-id 51)
(cx-use-window-id 51)
(cx-use-window-id 51)
(cx-use-window-id 51)
(cx-use-window-id 51)
(cx-use-window-id 51)
(cx-use-window-id 51)
(cx-use-window-id 51)
(cx-set-camera-relative '(1.21376 -0.263035 -0.0969887) '(0 0 0) '(0.026595 -0.000778496 0.0291724) 0 0)
(cx-use-window-id 51)
(cx-use-window-id 51)
(cx-use-window-id 51)
(cx-use-window-id 51)
(cx-use-window-id 51)
(cx-use-window-id 51)
(cx-use-window-id 51)
(cx-use-window-id 51)
(cx-use-window-id 51)
(cx-use-window-id 51)
(cx-use-window-id 51)
(cx-use-window-id 51)
(cx-use-window-id 51)
(cx-use-window-id 51)
(cx-use-window-id 51)
(cx-use-window-id 51)
(cx-use-window-id 51)
(cx-use-window-id 51)
(cx-use-window-id 51)
(cx-use-window-id 51)
(cx-use-window-id 51)
(cx-use-window-id 51)
(cx-use-window-id 51)
(cx-use-window-id 51)
(cx-use-window-id 51)
(cx-use-window-id 51)
(cx-use-window-id 51)
(cx-use-window-id 51)
(cx-use-window-id 51)
(cx-use-window-id 51)
(cx-use-window-id 51)
(cx-set-camera-relative '(0.052394 2.02658 -0.203221) '(0 0 0) '(-0.375696 -0.0749227 -0.183465) 0 0)
(cx-use-window-id 51)
(cxg-clear-all-selections (cx-active-window))
(cxg-add-surfaces-to-selection '() (cx-active-window))
(cx-use-window-id 51)
(cx-set-camera-relative '(-6.73491 -2.75742 -1.9461) '(0 0 0) '(0.0113996 0.00312638 -0.00648421) 0 0)
(cx-use-window-id 51)
(cx-set-camera-relative '(3.98739 1.04256 0.196285) '(0 0 0) '(-0.238821 -0.170713 0.469033) 0 0)
(cx-use-window-id 51)
(cx-set-camera-relative '(0.722371 -0.830814 -0.858732) '(0 0 0) '(0.344548 0.054359 0.228745) 0 0)
(cx-gui-do cx-activate-item "ToolBar*Pointer*translate")
(cx-use-window-id 51)
(cx-set-camera-relative '(1.5166 3.36475 -7.29519) '(0 0 0) '(0.0988496 -0.0857297 0.13841) 0 0)
(cx-use-window-id 51)
(cx-gui-do cx-activate-item "Mesh Display*PanelButtons*PushButton2(Cancel)")
/exit y
(cx-gui-do cx-activate-item "Question*OK")
