
              Welcome to ANSYS Fluent 2021 R1

              Copyright 1987-2021 ANSYS, Inc. All Rights Reserved.
              Unauthorized use, distribution or duplication is prohibited.
              This product is subject to U.S. laws governing export and re-export.
              For full Legal Notice, see documentation.

Build Time: Nov 20 2020 15:49:18 EST  Build Id: 10179  
 

*********************************************
Info: Your license enables 4-way parallel execution.
For faster simulations, please start the application with the appropriate parallel options.
*********************************************


     --------------------------------------------------------------
     This is an academic version of ANSYS FLUENT. Usage of this product
     license is limited to the terms and conditions specified in your ANSYS
     license form, additional terms section.
     --------------------------------------------------------------
Host spawning Node 0 on machine "DESKTOP-2B3UK9C" (win64).

--------------------------------------------------------------------------------
ID    Hostname         Core  O.S.         PID    Vendor                         
--------------------------------------------------------------------------------
n1    DESKTOP-2B3UK9C  2/8  Windows-x64  13024  Intel(R) Core(TM) i7-4770      
n0*   DESKTOP-2B3UK9C  1/8  Windows-x64  17516  Intel(R) Core(TM) i7-4770      
host  DESKTOP-2B3UK9C       Windows-x64  12392  Intel(R) Core(TM) i7-4770      

MPI Option Selected: intel
Selected system interconnect: default
--------------------------------------------------------------------------------

Cleanup script file is E:\\software\\Softwares_Yash\\ICEM\\FVM_DoubleMachReflection_3D\\Unstruct\\cleanup-fluent-DESKTOP-2B3UK9C-12392.bat

 +------------------------------------------------------------------+
 |                    ANSYS Product Improvement                     |
 |                                                                  |
 |   ANSYS Product Improvement Program helps improve ANSYS          |
 |   products. Participating in this program is like filling out a  |
 |   survey. Without interrupting your work, the software reports   |
 |   anonymous usage information such as errors, machine and        |
 |   solver statistics, features used, etc. to ANSYS. We never      |
 |   use the data to identify or contact you.                       |
 |   The data does NOT contain:                                     |
 |   - Any personally identifiable information including names,     |
 |     IP addresses, file names, part names, etc.                   |
 |   - Any information about your geometry or design specific       |
 |     inputs.                                                      |
 |   You can stop participation at any time. To change your         |
 |   selection go to Help >> ANSYS Product Improvement Program      |
 |   in the GUI.                                                    |
 |   For more information about the ANSYS Privacy Policy, please    |
 |   check: http://www.ansys.com/privacy                            |
 |                                                                  |
 +------------------------------------------------------------------+

Reading journal file E:\software\Softwares_Yash\ICEM\FVM_DoubleMachReflection_3D\Unstruct\_read_fluent_case_.jou...

> ;Journal file automatically created by Fluent!
/file read-case E:/software/Softwares_Yash/ICEM/FVM_DoubleMachReflection_3D/Unstruct/double_mach_reflection_3D_UnStruc_ref.msh

Reading "E:/software/Softwares_Yash/ICEM/FVM_DoubleMachReflection_3D/Unstruct/double_mach_reflection_3D_UnStruc_ref.msh"...

Buffering for file scan...

   11139 nodes.
   53151 tetrahedral cells, zone 26.
  101968 triangular interior faces, zone 27.
     112 triangular velocity-inlet faces, zone 28.
      86 triangular outflow faces, zone 24.
     329 triangular pressure-inlet faces, zone  4.
     321 triangular wall faces, zone 29.
    7820 triangular symmetry faces, zone  7.

Building...
     mesh
	auto partitioning mesh by Metis (fast),
	distributing mesh
		parts..,
		faces..,
		nodes..,
		cells..,
        bandwidth reduction using Reverse Cuthill-McKee: 26531/295 = 89.9356
     materials,
     interface,
     domains,
     zones,
	symm
	wall
	top_boundary_inlet
	outlet
	velocity_inlet
	int_created_material_7
	created_material_7
     parallel,
Done.

Preparing mesh for display...
Warning: Both outflow and pressure boundaries are present in the
         domain. This is an incompatibility and solution cannot
         proceed until this is fixed.

Warning: Both outflow and pressure boundaries are present in the
         domain. This is an incompatibility and solution cannot
         proceed until this is fixed.

Done.

> 
adjoint/                mesh/                   report/
define/                 parallel/               server/
display/                plot/                   solve/
exit                    preferences/            surface/
file/                   print-license-usage     views/

> 
adjoint/                mesh/                   report/
define/                 parallel/               server/
display/                plot/                   solve/
exit                    preferences/            surface/
file/                   print-license-usage     views/

> 
> (cx-gui-do cx-activate-item "General*Table1*ButtonBox1(Mesh)*PushButton2(Display)")
(cx-gui-do cx-set-toggle-button2 "Mesh Display*Table1*Frame1*Frame1*ToggleBox1(Options)*CheckButton3(Faces)" #f)
(cx-gui-do cx-activate-item "Mesh Display*Table1*Frame1*Frame1*ToggleBox1(Options)*CheckButton3(Faces)")
(cx-gui-do cx-set-toggle-button2 "Mesh Display*Table1*Frame1*Frame1*ToggleBox1(Options)*CheckButton2(Edges)" #t)
(cx-gui-do cx-activate-item "Mesh Display*Table1*Frame1*Frame1*ToggleBox1(Options)*CheckButton2(Edges)")
(cx-gui-do cx-activate-item "Mesh Display*PanelButtons*PushButton1(OK)")
(cx-gui-do cx-activate-item "Mesh Display*PanelButtons*PushButton2(Cancel)")
(cx-use-window-id 51)
(cx-use-window-id 51)
(cx-use-window-id 51)
(cx-use-window-id 51)
(cx-use-window-id 51)
(cx-use-window-id 51)
(cx-use-window-id 51)
(cx-set-camera-relative '(6.79439 2.31687 -4.46894) '(0 0 0) '(-0.42813 -0.132977 0.25491) 0 0)
(cx-use-window-id 51)
(cx-use-window-id 51)
(cx-use-window-id 51)
(cx-use-window-id 51)
(cx-use-window-id 51)
(cx-set-camera-relative '(-0.605464 -0.412232 1.16676) '(0 0 0) '(0.0420947 0.0449596 -0.116091) 0 0)
(cx-gui-do cx-activate-item "ToolBar*View*autoscale")
/exit y
(cx-gui-do cx-activate-item "Question*OK")
